kpg193_v2_0_2036/network/m/KPG193_ver2_0_2036.m
function mpc = KPG193_ver2_0_2036
% Generated from KPG193_ver1_6 ACOPF hourly result.
% Bus voltage angle Va is in degrees, matching MATPOWER case format.
mpc.version = '2';

%-----  Power Flow Data  -----%%
% system MVA base
mpc.baseMVA = 100;

% bus data
%	bus_i	type	Pd	Qd	Gs	Bs	area	Vm	Va	baseKV	zone	Vmax	Vmin
mpc.bus = [
	1	1	73.9202572233	7.39202572233	0	0	1	1.01302274394	-12.4526669866	154	1	1.1	0.9	;
	2	1	89.3421549062	8.93421549062	0	0	1	1.01709202667	-14.0222803778	345	1	1.05	0.95	;
	3	1	409.757846613	40.9757846613	0	0	1	1.01723971431	-13.9680301336	345	1	1.05	0.95	;
	4	1	95.0378641796	9.50378641796	0	0	1	1.01857222339	-14.3538342236	345	1	1.05	0.95	;
	5	1	80.2314315229	10.7318429211	0	0	1	1.01558574433	-6.63679548994	154	1	1.1	0.9	;
	6	1	91.3109281165	9.13109281165	0	0	1	1.01733452487	-15.1216521731	154	1	1.1	0.9	;
	7	1	616.121067699	61.6121067699	0	0	1	1.02025037306	-14.5728828833	345	1	1.05	0.95	;
	8	2	1406.39915796	140.639915796	0	0	1	1.01813750667	-14.7810749562	345	1	1.05	0.95	;
	9	1	356.057058939	35.6057058939	0	0	1	1.01958898699	-14.5810468387	154	1	1.1	0.9	;
	10	2	782.2433091	78.22433091	0	0	1	1.0196347597	-14.6852711463	154	1	1.1	0.9	;
	11	1	647.917582529	64.7917582529	0	0	1	1.0172636129	-15.1034101941	345	1	1.05	0.95	;
	12	1	355.520149724	35.5520149724	0	0	1	1.01950548072	-14.5950385539	154	1	1.1	0.9	;
	13	1	383.188399196	38.3188399196	0	0	1	1.01977694838	-14.573573978	154	1	1.1	0.9	;
	14	1	410.941226987	41.0941226987	0	0	1	1.01974811403	-14.6093279667	345	1	1.05	0.95	;
	15	1	121.564425695	12.1564425695	0	0	1	1.02039364461	-14.4888708624	154	1	1.1	0.9	;
	16	2	523.704335748	52.3704335748	0	0	1	1.02077433637	-14.4448229013	345	1	1.05	0.95	;
	17	1	564.714636002	56.4714636002	0	0	1	1.02042943325	-14.5323126696	345	1	1.05	0.95	;
	18	1	589.585515262	58.9585515262	0	0	1	1.02024413351	-14.566710685	345	1	1.05	0.95	;
	19	2	555.055760159	55.5055760159	0	0	1	1.01978773596	-14.6060137986	345	1	1.05	0.95	;
	20	2	282.673652266	28.6641333179	0	0	1	1.01919344194	-13.9045466384	154	1	1.1	0.9	;
	21	2	861.490397784	86.5210502514	0	0	1	1.01778307238	-14.902472335	345	1	1.05	0.95	;
	22	1	698.678100028	69.8678100028	0	0	1	1.02072430706	-14.3975172575	345	1	1.05	0.95	;
	23	1	408.860425298	40.8860425298	0	0	1	1.0190736777	-14.6486159118	345	1	1.05	0.95	;
	24	1	668.903906111	66.8903906111	0	0	1	1.01894232608	-14.6972255862	154	1	1.1	0.9	;
	25	1	540.924417821	54.0924417821	0	0	1	1.01843478392	-14.8252787851	154	1	1.1	0.9	;
	26	1	638.446561258	63.8446561258	0	0	1	1.01908993941	-14.665322924	345	1	1.05	0.95	;
	27	2	-34.6831417045	3.63670062427	0	0	1	1.0197999692	-14.473299396	345	1	1.05	0.95	;
	28	1	144.743102052	14.4743102052	0	0	1	1.01551102135	-10.7319332318	765	1	1.05	0.95	;
	29	1	703.91465831	70.3915749676	0	0	1	1.01988277955	-14.3816383482	345	1	1.05	0.95	;
	30	1	546.929239765	54.6929239765	0	0	1	1.01982818477	-14.3846295064	154	1	1.1	0.9	;
	31	1	444.8109052	44.48109052	0	0	1	1.01826788249	-14.7102294664	154	1	1.1	0.9	;
	32	1	183.396825966	18.3396825966	0	0	1	1.01880521069	-14.6706989281	345	1	1.05	0.95	;
	33	1	528.857884471	52.8857884471	0	0	1	1.01855302255	-14.6837444476	154	1	1.1	0.9	;
	34	2	1182.73481026	118.27354139	0	0	1	1.01941925375	-14.5919340055	345	1	1.05	0.95	;
	35	1	720.53248519	72.053248519	0	0	1	1.01590937356	-14.8674210689	154	1	1.1	0.9	;
	36	2	831.216542707	83.1216542707	0	0	1	1.01997561347	-14.3217829044	345	1	1.05	0.95	;
	37	1	1019.05520238	101.905520238	0	0	1	1.01778942591	-14.644036019	345	1	1.05	0.95	;
	38	1	412.728988273	41.2728988273	0	0	1	1.01698412346	-13.7024652625	345	1	1.05	0.95	;
	39	1	796.270420395	79.6270420395	0	0	1	1.01311732431	-15.4041978875	154	1	1.1	0.9	;
	40	2	1207.01034621	120.701034621	0	0	1	1.01563431679	-13.9063888727	345	1	1.05	0.95	;
	41	1	218.092157251	21.8092157251	0	0	1	1.00623837876	-9.75302073655	154	1	1.1	0.9	;
	42	2	1331.01895006	133.101895006	0	0	1	1.00529017136	-12.7928097017	154	1	1.1	0.9	;
	43	2	693.734750263	69.3740492563	0	0	1	1.01393062389	-14.8682249583	154	1	1.1	0.9	;
	44	1	214.038524502	21.4038524502	0	0	1	1.01615881733	-14.3952113253	345	1	1.05	0.95	;
	45	1	391.893998615	39.1893998615	0	0	1	1.01661934536	-13.6115383019	345	1	1.05	0.95	;
	46	2	1232.84245846	123.284245846	0	0	1	1.01736678848	-13.4807573588	345	1	1.05	0.95	;
	47	1	3122.59904602	312.260026405	0	0	1	1.01245080052	-15.0536365547	345	1	1.05	0.95	;
	48	2	217.815268681	21.7815268681	0	0	1	1.0182442229	-13.1623125541	154	1	1.1	0.9	;
	49	1	445.634728261	44.5634728261	0	0	1	1.01389014023	-13.636837994	154	1	1.1	0.9	;
	50	1	529.850467511	52.9937829459	0	0	1	1.01694800078	-12.8874507539	765	1	1.05	0.95	;
	51	1	2123.06427366	212.306427366	0	0	1	1.01472270038	-13.364782721	345	1	1.05	0.95	;
	52	2	488.579429351	48.8579429351	0	0	2	1.00979930491	-9.99223724212	154	1	1.1	0.9	;
	53	2	1013.99625725	101.399625725	0	0	2	1.01890782521	-9.006919588	765	1	1.05	0.95	;
	54	1	435.672229779	43.5672229779	0	0	2	1.01512089009	-12.2200981814	345	1	1.05	0.95	;
	55	1	1268.16604036	126.816604036	0	0	2	1.01479405925	-11.8611633719	345	1	1.05	0.95	;
	56	1	176.193347038	17.6193347038	0	0	2	1.01013118204	-11.7584777339	154	1	1.1	0.9	;
	57	1	1996.79473857	199.679998276	0	0	2	1.01399662763	-12.2392364254	345	1	1.05	0.95	;
	58	1	1494.73333061	149.474936752	0	0	2	1.01811339221	-8.67578459145	345	1	1.05	0.95	;
	59	2	135.681099123	13.5727833002	0	0	2	1.01873565173	-7.6814989002	345	1	1.05	0.95	;
	60	1	197.661361253	19.7661361253	0	0	2	1.01708515201	-10.3176393968	345	1	1.05	0.95	;
	61	1	946.290796444	94.6293103209	0	0	2	1.01508786285	-12.1976990244	154	1	1.1	0.9	;
	62	1	1113.78920522	111.378920522	0	0	2	1.01660821353	-12.0877565456	765	1	1.05	0.95	;
	63	1	152.998471405	15.4309283877	0	0	2	1.01886177465	-9.73474534752	765	1	1.05	0.95	;
	64	1	562.255340368	56.2255340368	0	0	2	1.0151114992	-11.3699957352	345	1	1.05	0.95	;
	65	1	64.568243166	13.3713468656	0	0	3	0.993853593375	0.47518565383	154	1	1.1	0.9	;
	66	1	29.8037480638	3.86262737544	0	0	3	1.00841845207	-7.30890941308	154	1	1.1	0.9	;
	67	1	26.5783840133	3.06035070091	0	0	3	1.00134131337	-4.78541411669	154	1	1.1	0.9	;
	68	1	36.6013145994	4.83179306583	0	0	3	0.994964586562	2.18748977752	345	1	1.05	0.95	;
	69	1	50.2771559869	5.02771559869	0	0	3	0.997918126427	-2.88374044167	154	1	1.1	0.9	;
	70	2	277.302390939	27.7302390939	0	0	3	1.01017907398	-6.42293489461	154	1	1.1	0.9	;
	71	2	200.24681139	31.2734420865	0	0	3	0.994771522148	4.25893697645	345	1	1.05	0.95	;
	72	1	109.185040087	10.9185040087	0	0	3	1.00464049092	-6.46159154794	154	1	1.1	0.9	;
	73	2	339.791561514	35.4575227697	0	0	3	0.995114673568	6.70247123928	345	1	1.05	0.95	;
	74	1	-1.39684782317	10.0835974484	0	0	3	1.00549701209	-7.1622168601	154	1	1.1	0.9	;
	75	2	209.266015825	20.9266015825	0	0	3	0.995752976217	8.79036393519	345	1	1.05	0.95	;
	76	1	88.7958613113	9.31578862693	0	0	3	0.988647541937	0.312735623386	154	1	1.1	0.9	;
	77	1	384.177002782	38.4177002782	0	0	3	1.00534122174	-8.28742023807	154	1	1.1	0.9	;
	78	1	-64.663004893	9.29809321947	0	0	3	1.00902852866	-5.06081913855	154	1	1.1	0.9	;
	79	1	-20.2714518048	16.9488904061	0	0	3	0.992071333024	-2.73907919068	154	1	1.1	0.9	;
	80	1	-43.1170284082	4.4973387258	0	0	3	0.993723500085	4.04577646558	765	1	1.05	0.95	;
	81	1	245.453883808	24.5478903344	0	0	3	0.997970443644	-4.934533954	345	1	1.05	0.95	;
	82	2	101.001283953	10.673576973	0	0	3	0.994389346377	8.58154166718	765	1	1.05	0.95	;
	83	1	280.682981658	28.0690536333	0	0	3	0.987187071333	-5.81427777811	154	1	1.1	0.9	;
	84	1	388.929086235	40.944491479	0	0	3	1.00735365332	-9.87374260029	345	1	1.05	0.95	;
	85	1	264.361828584	26.4361828584	0	0	3	0.988799658659	-2.92172975276	154	1	1.1	0.9	;
	86	1	258.880786421	25.8881503609	0	0	3	0.996343134078	-3.98240378396	345	1	1.05	0.95	;
	87	1	8.19859676228	5.92245555108	0	0	3	0.998298076793	-4.99062844852	345	1	1.05	0.95	;
	88	1	16.6530174648	1.66530174648	0	0	3	0.99933508233	-4.09677760163	154	1	1.1	0.9	;
	89	1	89.8285767027	8.98310064502	0	0	3	0.99743968433	-6.72669524004	154	1	1.1	0.9	;
	90	1	170.45017234	17.9905324753	0	0	3	0.998569798823	-5.75650003123	154	1	1.1	0.9	;
	91	1	60.2237413327	6.02237413327	0	0	3	1.01218349459	-10.558437168	154	1	1.1	0.9	;
	92	1	-62.0422538708	3.05652359166	0	0	3	1.0010594045	-5.10255933772	345	1	1.05	0.95	;
	93	1	119.167589121	11.9167589121	0	0	3	1.0033012519	-8.78281966204	154	1	1.1	0.9	;
	94	1	-86.5728355294	4.4049311439	0	0	3	0.996594386883	-2.39358304294	154	1	1.1	0.9	;
	95	1	67.6893096139	6.76893096139	0	0	3	1.00017918159	-5.92777410711	345	1	1.05	0.95	;
	96	2	175.123586457	17.5123586457	0	0	4	1.01880864951	-9.03602181377	154	1	1.1	0.9	;
	97	1	54.4907157549	5.44907157549	0	0	4	1.01853840679	-8.56111081677	345	1	1.05	0.95	;
	98	1	276.930724961	28.0932575134	0	0	4	1.01138431663	-11.5685508304	154	1	1.1	0.9	;
	99	1	901.354247456	90.1354247456	0	0	4	1.01063729229	-11.6880731768	154	1	1.1	0.9	;
	100	2	211.230333357	21.1230333357	0	0	4	1.02082871434	-6.49404711062	345	1	1.05	0.95	;
	101	1	329.428573787	32.9428573787	0	0	4	1.01354683554	-10.7648269648	154	1	1.1	0.9	;
	102	1	96.9826085543	9.69826085543	0	0	4	1.0153405432	-10.0607151716	345	1	1.05	0.95	;
	103	1	101.670459347	10.1670459347	0	0	4	1.01816069115	-8.32878745875	154	1	1.1	0.9	;
	104	1	214.781508831	21.4781508831	0	0	4	1.01647628397	-9.50557751131	345	1	1.05	0.95	;
	105	1	143.982772404	14.3982772404	0	0	4	1.01238773393	-10.2474387992	154	1	1.1	0.9	;
	106	2	170.387542661	17.0400965462	0	0	4	1.01681812889	-7.40548453183	154	1	1.1	0.9	;
	107	1	-14.5872990409	3.23548272133	0	0	4	1.01345543709	-9.32830581099	345	1	1.05	0.95	;
	108	1	840.812609504	88.4430467979	0	0	4	1.01676915844	-8.28282671712	345	1	1.05	0.95	;
	109	1	463.147930303	46.3147930303	0	0	4	1.01462226979	-8.43490629334	345	1	1.05	0.95	;
	110	1	271.038900966	27.1038900966	0	0	4	1.00977825631	-9.63675881517	154	1	1.1	0.9	;
	111	1	171.628050266	17.163860963	0	0	4	1.01256052042	-7.28047172377	345	1	1.05	0.95	;
	112	1	31.7315892342	3.17315892342	0	0	4	1.01201824432	-9.28267951602	154	1	1.1	0.9	;
	113	1	674.463291995	67.4502386123	0	0	4	1.00859422574	-9.66577042845	154	1	1.1	0.9	;
	114	1	73.4484278023	7.46097734148	0	0	4	1.01262211063	-7.62137034052	154	1	1.1	0.9	;
	115	1	32.5344069553	3.25344069553	0	0	4	1.01538478386	-8.2086814538	154	1	1.1	0.9	;
	116	1	45.9278571671	4.59278571671	0	0	4	1.01259777911	-8.35040394008	154	1	1.1	0.9	;
	117	1	257.254539183	27.7318861035	0	0	4	1.01437597094	-7.44536757085	154	1	1.1	0.9	;
	118	1	23.7011947981	10.071742162	0	0	4	1.01191989596	-4.29167004825	154	1	1.1	0.9	;
	119	1	101.465020758	10.1465020758	0	0	4	1.01456432701	-6.68949761012	345	1	1.05	0.95	;
	120	1	41.6030645771	4.16030645771	0	0	4	1.01395910756	-6.25105569619	154	1	1.1	0.9	;
	121	1	96.817828029	9.6817828029	0	0	4	1.01560708141	-6.67339869826	154	1	1.1	0.9	;
	122	1	80.1747562743	8.01747562743	0	0	4	1.01227438641	-6.87684426719	154	1	1.1	0.9	;
	123	1	65.2085312465	6.52085312465	0	0	4	1.01383728467	-6.73649571433	154	1	1.1	0.9	;
	124	2	-1351.07635878	12.6724737501	0	0	4	1.01092786931	-0.0198475450212	345	1	1.05	0.95	;
	125	1	26.9893950817	2.69893950817	0	0	4	1.0133861441	-6.92839490437	154	1	1.1	0.9	;
	126	1	449.627731962	44.9627731962	0	0	4	1.01258276648	-6.10528680095	345	1	1.05	0.95	;
	127	1	354.300542128	35.4304067856	0	0	4	1.01078854276	-7.00871846416	154	1	1.1	0.9	;
	128	1	535.318538202	53.5318538202	0	0	4	1.00891027681	-7.99902305163	154	1	1.1	0.9	;
	129	1	63.3609365683	6.33609365683	0	0	4	1.02098900681	-6.57479126589	154	1	1.1	0.9	;
	130	1	80.1534326718	8.01534326718	0	0	4	1.01365913984	-6.45054750402	345	1	1.05	0.95	;
	131	1	205.406045943	20.5406045943	0	0	4	1.01237563995	-7.50323470841	154	1	1.1	0.9	;
	132	1	-37.9131276391	11.0262836802	0	0	4	1.02174180827	-6.36033380615	154	1	1.1	0.9	;
	133	1	321.271268809	33.0022531595	0	0	4	1.01313448928	-7.51080533821	345	1	1.05	0.95	;
	134	1	751.892980088	75.1892980088	0	0	4	1.01373029269	-7.09751549298	345	1	1.05	0.95	;
	135	1	158.212509576	15.9570644097	0	0	4	1.02036164877	-6.96437392313	154	1	1.1	0.9	;
	136	1	-185.895359307	18.3498590472	0	0	4	1.01806176888	-6.7306332374	345	1	1.05	0.95	;
	137	2	2183.79015401	218.379015401	0	0	4	1.01115577914	-7.8801424658	345	1	1.05	0.95	;
	138	1	47.1902462616	4.71902462616	0	0	4	1.01570532065	-7.7081681755	154	1	1.1	0.9	;
	139	1	-612.805085933	5.00660682352	0	0	4	1.02463896563	-5.59893705671	154	1	1.1	0.9	;
	140	1	57.8962064668	5.78962064668	0	0	4	1.01917879061	-7.7028127633	154	1	1.1	0.9	;
	141	1	60.1797415111	6.01797415111	0	0	4	1.02103077591	-7.47203576565	154	1	1.1	0.9	;
	142	1	81.7714803603	8.17714803603	0	0	4	1.01446314929	-7.90354457577	154	1	1.1	0.9	;
	143	1	117.469728267	11.7570865035	0	0	4	1.02183256773	-7.54775970243	154	1	1.1	0.9	;
	144	1	52.1340293929	5.40837372966	0	0	4	1.0207984788	-7.64119002577	154	1	1.1	0.9	;
	145	1	138.533360934	16.8000309735	0	0	4	1.01906925344	-8.38031838844	154	1	1.1	0.9	;
	146	1	19.7725292115	4.91361841215	0	0	5	0.997809726675	-7.43339265775	154	1	1.1	0.9	;
	147	1	66.6065798271	6.66065798271	0	0	5	1.01212501218	-9.89385431567	154	1	1.1	0.9	;
	148	1	360.614923053	36.0615695066	0	0	5	0.988734942566	-11.2301030062	154	1	1.1	0.9	;
	149	1	1426.63334716	142.663334716	0	0	5	0.995848210722	-9.53151698826	345	1	1.05	0.95	;
	150	1	784.639384666	79.3348370761	0	0	5	0.998638923072	-5.59769968938	345	1	1.05	0.95	;
	151	1	670.068987547	67.050444935	0	0	5	1.0002977026	-5.0851156275	345	1	1.05	0.95	;
	152	1	300.500163059	30.0500163059	0	0	5	0.998909668115	-8.0884215901	345	1	1.05	0.95	;
	153	1	235.472373859	23.5474632879	0	0	5	0.993548058546	-7.39182654116	154	1	1.1	0.9	;
	154	1	161.174688226	16.1174688226	0	0	5	0.994190814258	-9.43977818025	154	1	1.1	0.9	;
	155	1	451.631434506	45.1631434506	0	0	5	0.994942907178	-9.34291413319	154	1	1.1	0.9	;
	156	1	486.554244073	48.6554244073	0	0	5	0.995510764411	-8.06987676284	154	1	1.1	0.9	;
	157	1	229.052807201	22.9052807201	0	0	5	0.995662481782	-9.37736869434	154	1	1.1	0.9	;
	158	1	502.967482394	59.923325191	0	0	5	0.999113031111	-4.98479350382	154	1	1.1	0.9	;
	159	1	416.771879655	41.6771879655	0	0	5	0.996953638203	-7.11043309603	345	1	1.05	0.95	;
	160	1	1189.44783951	118.945513349	0	0	5	1.00066517579	-9.24149224252	154	1	1.1	0.9	;
	161	1	196.133620612	19.6133620612	0	0	5	1.00455710571	-6.66073235521	345	1	1.05	0.95	;
	162	1	70.7711271356	7.07711271356	0	0	5	1.00336901811	-6.65433864084	154	1	1.1	0.9	;
	163	1	74.4372750184	7.44372750184	0	0	5	1.00102575115	-5.48866818766	345	1	1.05	0.95	;
	164	1	58.6067143987	6.26007660521	0	0	5	1.00426776303	-6.287562236	154	1	1.1	0.9	;
	165	1	1825.32034536	182.532034536	0	0	5	0.997229557914	-5.42819202491	345	1	1.05	0.95	;
	166	2	586.295076524	58.6295076524	0	0	5	1.00505046681	-2.78106567227	345	1	1.05	0.95	;
	167	2	2436.12449328	243.612809645	0	0	5	1.00353967783	-3.13693339555	345	1	1.05	0.95	;
	168	1	155.139392626	15.5139392626	0	0	5	1.0067083671	-3.69196017855	765	1	1.05	0.95	;
	169	1	43.7209438736	4.37209438736	0	0	5	1.00411451402	-6.30337156908	154	1	1.1	0.9	;
	170	1	158.377633112	19.211817939	0	0	5	1.00102097827	-4.19336162593	154	1	1.1	0.9	;
	171	1	13.540628183	5.37809898805	0	0	5	1.00695334064	-4.65602819821	345	1	1.05	0.95	;
	172	2	307.516583383	56.7195096107	0	0	5	1.00158796933	-2.1321376653	154	1	1.1	0.9	;
	173	1	-39.3452980443	5.88574394588	0	0	5	1.00620433847	-4.61302040645	345	1	1.05	0.95	;
	174	1	426.797553288	42.6797553288	0	0	5	1.00313547734	-4.32886869834	345	1	1.05	0.95	;
	175	2	191.224951069	19.3509703585	0	0	5	1.01023706587	0.923664741042	765	1	1.05	0.95	;
	176	1	560.745292341	56.0749878118	0	0	5	1.00104391768	-3.51196292073	345	1	1.05	0.95	;
	177	1	716.976615341	71.6976615341	0	0	5	1.00034111631	-3.02298728249	345	1	1.05	0.95	;
	178	1	810.43972534	81.0439874694	0	0	5	0.998191953216	-3.23188450572	154	1	1.1	0.9	;
	179	1	432.576010869	43.2576010869	0	0	5	1.00465644259	-0.976227621124	345	1	1.05	0.95	;
	180	1	404.586475178	40.4586475178	0	0	5	1.00091506686	-4.69536081002	154	1	1.1	0.9	;
	181	1	366.783706222	36.6783706222	0	0	5	1.00315382546	-1.71682599595	345	1	1.05	0.95	;
	182	1	662.161210647	66.2166682074	0	0	5	1.00198766537	-2.12336226002	345	1	1.05	0.95	;
	183	1	299.540143945	29.9544817928	0	0	5	0.999890002891	-2.85530027661	345	1	1.05	0.95	;
	184	1	591.835771454	59.1845896693	0	0	5	1.00421137957	-1.07671875392	345	1	1.05	0.95	;
	185	1	338.230845508	33.8230845508	0	0	5	1.00227378778	-1.77537813953	154	1	1.1	0.9	;
	186	2	506.466410076	50.6486640645	0	0	5	1.00428987473	-1.25396748759	345	1	1.05	0.95	;
	187	1	70.0001356868	7.00001356868	0	0	5	1.00425984171	-1.2634700221	345	1	1.05	0.95	;
	188	1	63.9311838039	6.39311838039	0	0	5	1.01254303535	-5.50857879146	154	1	1.1	0.9	;
	189	1	116.12645273	11.6700098222	0	0	5	1.00157099843	-2.46762737316	154	1	1.1	0.9	;
	190	3	209.227943713	20.9404539676	0	0	5	1	0	345	1	1.05	0.95	;
	191	1	291.437288615	29.1447100311	0	0	5	0.997791747065	-2.1046277559	154	1	1.1	0.9	;
	192	2	145.574573418	14.5579655621	0	0	5	1.00030694082	-0.900213077167	154	1	1.1	0.9	;
	193	2	41.5251697754	4.15251697754	0	0	5	1.01661151515	-3.99035706645	345	1	1.05	0.95	;
];

% generator data
%	bus	Pg	Qg	Qmax	Qmin	Vg	mBase	status	Pmax	Pmin	Pc1	Pc2	Qc1min	Qc1max	Qc2min	Qc2max	ramp_agc	ramp_10	ramp_30	ramp_q	apf
mpc.gen = [
	3	0	0	362.5	-362.5	1.01723971431	100	0	725	377	0	0	0	0	0	0	0	120.8333333	362.5	362.5	0	;
	3	0	0	362.5	-362.5	1.01723971431	100	0	725	377	0	0	0	0	0	0	0	120.8333333	362.5	362.5	0	;
	3	0	0	437.1	-437.1	1.01723971431	100	0	874.2	454.584	0	0	0	0	0	0	0	145.7	437.1	437.1	0	;
	4	0	0	262.15	-262.15	1.01857222339	100	0	524.3	272.636	0	0	0	0	0	0	0	87.38333333	262.15	262.15	0	;
	4	0	0	429.2	-429.2	1.01857222339	100	0	858.4	446.368	0	0	0	0	0	0	0	143.0666667	429.2	429.2	0	;
	4	0	0	429.2	-429.2	1.01857222339	100	0	858.4	446.368	0	0	0	0	0	0	0	143.0666667	429.2	429.2	0	;
	8	0	0	423.8	-423.8	1.01813750667	100	0	847.6	440.752	0	0	0	0	0	0	0	141.2666667	423.8	423.8	0	;
	8	0	0	423.8	-423.8	1.01813750667	100	0	847.6	440.752	0	0	0	0	0	0	0	141.2666667	423.8	423.8	0	;
	8	488.866710344	-20.966195474	257.75	-257.75	1.01813750667	100	1	515.5	268.06	0	0	0	0	0	0	0	85.91666667	257.75	257.75	0	;
	9	0	0	57.705	-57.705	1.01958898699	100	0	115.41	60.0132	0	0	0	0	0	0	0	19.235	57.705	57.705	0	;
	9	0	0	18.5	-18.5	1.01958898699	100	0	37	19.24	0	0	0	0	0	0	0	6.166666667	18.5	18.5	0	;
	10	0	0	300	-300	1.0196347597	100	0	600	312	0	0	0	0	0	0	0	100	300	300	0	;
	10	289.00557893	21.9237422049	150	-150	1.0196347597	100	1	300	156	0	0	0	0	0	0	0	50	150	150	0	;
	19	0	0	184.5865	-184.5865	1.01978773596	100	0	369.173	191.96996	0	0	0	0	0	0	0	61.52883333	184.5865	184.5865	0	;
	19	360.079668134	12.1710440182	184.5865	-184.5865	1.01978773596	100	1	369.173	191.96996	0	0	0	0	0	0	0	61.52883333	184.5865	184.5865	0	;
	20	347.993658178	45.3879761151	181.9055	-181.9055	1.01919344194	100	1	363.811	189.18172	0	0	0	0	0	0	0	60.63516667	181.9055	181.9055	0	;
	21	425.889637683	23.7166304095	225	-225	1.01778307238	100	1	450	234	0	0	0	0	0	0	0	75	225	225	0	;
	21	0	0	225	-225	1.01778307238	100	0	450	234	0	0	0	0	0	0	0	75	225	225	0	;
	21	0	0	225	-225	1.01778307238	100	0	450	234	0	0	0	0	0	0	0	75	225	225	0	;
	21	0	0	225	-225	1.01778307238	100	0	450	234	0	0	0	0	0	0	0	75	225	225	0	;
	24	0	0	10.5	-10.5	1.01894232608	100	0	21	10.92	0	0	0	0	0	0	0	3.5	10.5	10.5	0	;
	26	0	0	0	0	1.01908993941	100	0	0	0	0	0	0	0	0	0	0	0	0	0	0	;
	27	0	0	63.5	-63.5	1.0197999692	100	0	127	66.04	0	0	0	0	0	0	0	21.16666667	63.5	63.5	0	;
	27	182.453946681	4.92674273347	93.65	-93.65	1.0197999692	100	1	187.3	97.396	0	0	0	0	0	0	0	31.21666667	93.65	93.65	0	;
	34	216.128554511	13.460449281	112.5	-112.5	1.01941925375	100	1	225	117	0	0	0	0	0	0	0	37.5	112.5	112.5	0	;
	34	0	0	112.5	-112.5	1.01941925375	100	0	225	117	0	0	0	0	0	0	0	37.5	112.5	112.5	0	;
	34	0	0	112.5	-112.5	1.01941925375	100	0	225	117	0	0	0	0	0	0	0	37.5	112.5	112.5	0	;
	34	216.128554511	13.460449281	112.5	-112.5	1.01941925375	100	1	225	117	0	0	0	0	0	0	0	37.5	112.5	112.5	0	;
	34	219.178124248	13.460449281	112.5	-112.5	1.01941925375	100	1	225	117	0	0	0	0	0	0	0	37.5	112.5	112.5	0	;
	34	216.128554511	13.460449281	112.5	-112.5	1.01941925375	100	1	225	117	0	0	0	0	0	0	0	37.5	112.5	112.5	0	;
	34	0	0	112.5	-112.5	1.01941925375	100	0	225	117	0	0	0	0	0	0	0	37.5	112.5	112.5	0	;
	34	215.607348072	13.460449281	112.5	-112.5	1.01941925375	100	1	225	117	0	0	0	0	0	0	0	37.5	112.5	112.5	0	;
	34	468.113664364	21.5257314627	251.7695	-251.7695	1.01941925375	100	1	503.539	261.84028	0	0	0	0	0	0	0	83.92316667	251.7695	251.7695	0	;
	34	0	0	254.454	-254.454	1.01941925375	100	0	508.908	264.63216	0	0	0	0	0	0	0	84.818	254.454	254.454	0	;
	34	0	0	225	-225	1.01941925375	100	0	450	234	0	0	0	0	0	0	0	75	225	225	0	;
	34	422.988681106	32.4857722639	225	-225	1.01941925375	100	1	450	234	0	0	0	0	0	0	0	75	225	225	0	;
	34	0	0	225	-225	1.01941925375	100	0	450	234	0	0	0	0	0	0	0	75	225	225	0	;
	34	548.132162019	3.47223936344	287.3	-287.3	1.01941925375	100	1	574.6	298.792	0	0	0	0	0	0	0	95.76666667	287.3	287.3	0	;
	34	550.170735612	3.47223936344	287.3	-287.3	1.01941925375	100	1	574.6	298.792	0	0	0	0	0	0	0	95.76666667	287.3	287.3	0	;
	34	0	0	187.8	-187.8	1.01941925375	100	0	375.6	195.312	0	0	0	0	0	0	0	62.6	187.8	187.8	0	;
	34	0	0	187.8	-187.8	1.01941925375	100	0	375.6	195.312	0	0	0	0	0	0	0	62.6	187.8	187.8	0	;
	34	0	0	187.8	-187.8	1.01941925375	100	0	375.6	195.312	0	0	0	0	0	0	0	62.6	187.8	187.8	0	;
	36	0	0	0	0	1.01997561347	100	0	0	0	0	0	0	0	0	0	0	0	0	0	0	;
	36	0	0	0	0	1.01997561347	100	0	0	0	0	0	0	0	0	0	0	0	0	0	0	;
	36	0	0	206.3	-206.3	1.01997561347	100	0	412.6	214.552	0	0	0	0	0	0	0	68.76666667	206.3	206.3	0	;
	36	141.300189774	4.74563661446	73.157	-73.157	1.01997561347	100	1	146.314	76.08328	0	0	0	0	0	0	0	24.38566667	73.157	73.157	0	;
	37	0	0	12	-12	1.01778942591	100	0	24	12.48	0	0	0	0	0	0	0	4	12	12	0	;
	39	0	0	240.845	-240.845	1.01311732431	100	0	481.69	250.4788	0	0	0	0	0	0	0	80.28166667	240.845	240.845	0	;
	39	0	0	240.845	-240.845	1.01311732431	100	0	481.69	250.4788	0	0	0	0	0	0	0	80.28166667	240.845	240.845	0	;
	40	0	0	30	-30	1.01563431679	100	0	60	31.2	0	0	0	0	0	0	0	10	30	30	0	;
	40	0	0	375.6	-375.6	1.01563431679	100	0	751.2	390.624	0	0	0	0	0	0	0	125.2	375.6	375.6	0	;
	40	0	0	0	0	1.01563431679	100	0	0	0	0	0	0	0	0	0	0	0	0	0	0	;
	40	0	0	0	0	1.01563431679	100	0	0	0	0	0	0	0	0	0	0	0	0	0	0	;
	40	868.036162514	-49.0887393556	435	-435	1.01563431679	100	1	870	348	0	0	0	0	0	0	0	95.7	287.1	435	0	;
	40	868.036162514	-49.0887393556	435	-435	1.01563431679	100	1	870	348	0	0	0	0	0	0	0	95.7	287.1	435	0	;
	40	868.036162514	-49.0887393556	435	-435	1.01563431679	100	1	870	348	0	0	0	0	0	0	0	95.7	287.1	435	0	;
	40	868.036162514	-49.0887393556	435	-435	1.01563431679	100	1	870	348	0	0	0	0	0	0	0	95.7	287.1	435	0	;
	43	141.230751432	4.32097073119	72.394	-72.394	1.01393062389	100	1	144.788	75.28976	0	0	0	0	0	0	0	24.13133333	72.394	72.394	0	;
	43	0	0	0	0	1.01393062389	100	0	0	0	0	0	0	0	0	0	0	0	0	0	0	;
	45	0	0	255.9	-255.9	1.01661934536	100	0	511.8	266.136	0	0	0	0	0	0	0	85.3	255.9	255.9	0	;
	47	0	0	0	0	1.01245080052	100	0	0	0	0	0	0	0	0	0	0	0	0	0	0	;
	47	0	0	0	0	1.01245080052	100	0	0	0	0	0	0	0	0	0	0	0	0	0	0	;
	47	0	0	0	0	1.01245080052	100	0	0	0	0	0	0	0	0	0	0	0	0	0	0	;
	47	0	0	0	0	1.01245080052	100	0	0	0	0	0	0	0	0	0	0	0	0	0	0	;
	47	0	0	434.25	-434.25	1.01245080052	100	0	868.5	451.62	0	0	0	0	0	0	0	144.75	434.25	434.25	0	;
	47	0	0	431.65	-431.65	1.01245080052	100	0	863.3	448.916	0	0	0	0	0	0	0	143.8833333	431.65	431.65	0	;
	48	0	0	218.05	-218.05	1.0182442229	100	0	436.1	226.772	0	0	0	0	0	0	0	72.68333333	218.05	218.05	0	;
	48	360.262870681	40.3857067104	189.19	-189.19	1.0182442229	100	1	378.38	196.7576	0	0	0	0	0	0	0	63.06333333	189.19	189.19	0	;
	48	363.104816436	40.3857067104	189.19	-189.19	1.0182442229	100	1	378.38	196.7576	0	0	0	0	0	0	0	63.06333333	189.19	189.19	0	;
	49	0	0	384.915	-384.915	1.01389014023	100	0	769.83	400.3116	0	0	0	0	0	0	0	128.305	384.915	384.915	0	;
	53	462.430561315	20.6891972418	250.375	-250.375	1.01890782521	100	1	500.75	260.39	0	0	0	0	0	0	0	83.45833333	250.375	250.375	0	;
	53	0	0	266.5	-266.5	1.01890782521	100	0	533	277.16	0	0	0	0	0	0	0	88.83333333	266.5	266.5	0	;
	53	0	0	191	-191	1.01890782521	100	0	382	198.64	0	0	0	0	0	0	0	63.66666667	191	191	0	;
	53	0	0	423	-423	1.01890782521	100	0	846	439.92	0	0	0	0	0	0	0	141	423	423	0	;
	53	0	0	0	0	1.01890782521	100	0	0	0	0	0	0	0	0	0	0	0	0	0	0	;
	53	0	0	0	0	1.01890782521	100	0	0	0	0	0	0	0	0	0	0	0	0	0	0	;
	53	477.446470463	20.8797813433	250	-250	1.01890782521	100	1	500	200	0	0	0	0	0	0	0	55	165	250	0	;
	53	477.446470463	20.8797813433	250	-250	1.01890782521	100	1	500	200	0	0	0	0	0	0	0	55	165	250	0	;
	53	0	0	0	0	1.01890782521	100	0	0	0	0	0	0	0	0	0	0	0	0	0	0	;
	53	0	0	0	0	1.01890782521	100	0	0	0	0	0	0	0	0	0	0	0	0	0	0	;
	53	477.446470463	20.8797813433	250	-250	1.01890782521	100	1	500	200	0	0	0	0	0	0	0	55	165	250	0	;
	53	477.446470463	20.8797813433	250	-250	1.01890782521	100	1	500	200	0	0	0	0	0	0	0	55	165	250	0	;
	53	1011.15171211	-102.171451633	510	-510	1.01890782521	100	1	1020	408	0	0	0	0	0	0	0	112.2	336.6	510	0	;
	53	1011.15171211	-102.171451633	510	-510	1.01890782521	100	1	1020	408	0	0	0	0	0	0	0	112.2	336.6	510	0	;
	57	0	0	50.85	-50.85	1.01399662763	100	0	101.7	52.884	0	0	0	0	0	0	0	16.95	50.85	50.85	0	;
	58	0	0	0	0	1.01811339221	100	0	0	0	0	0	0	0	0	0	0	0	0	0	0	;
	59	0	0	173.165	-173.165	1.01873565173	100	0	346.33	180.0916	0	0	0	0	0	0	0	57.72166667	173.165	173.165	0	;
	59	0	0	0	0	1.01873565173	100	0	0	0	0	0	0	0	0	0	0	0	0	0	0	;
	59	0	0	0	0	1.01873565173	100	0	0	0	0	0	0	0	0	0	0	0	0	0	0	;
	59	0	0	0	0	1.01873565173	100	0	0	0	0	0	0	0	0	0	0	0	0	0	0	;
	59	0	0	0	0	1.01873565173	100	0	0	0	0	0	0	0	0	0	0	0	0	0	0	;
	59	0	0	0	0	1.01873565173	100	0	0	0	0	0	0	0	0	0	0	0	0	0	0	;
	59	0	0	0	0	1.01873565173	100	0	0	0	0	0	0	0	0	0	0	0	0	0	0	;
	59	473.863368962	23.8943626036	250	-250	1.01873565173	100	1	500	200	0	0	0	0	0	0	0	55	165	250	0	;
	59	473.863368962	23.8943626036	250	-250	1.01873565173	100	1	500	200	0	0	0	0	0	0	0	55	165	250	0	;
	59	1039.73656245	-103.786898809	525	-525	1.01873565173	100	1	1050	420	0	0	0	0	0	0	0	115.5	346.5	525	0	;
	59	1039.73656245	-103.786898809	525	-525	1.01873565173	100	1	1050	420	0	0	0	0	0	0	0	115.5	346.5	525	0	;
	62	0	0	0	0	1.01660821353	100	0	0	0	0	0	0	0	0	0	0	0	0	0	0	;
	64	0	0	265.2205	-265.2205	1.0151114992	100	0	530.441	275.82932	0	0	0	0	0	0	0	88.40683333	265.2205	265.2205	0	;
	70	392.262869563	14.0411468741	215.6	-215.6	1.01017907398	100	1	431.2	224.224	0	0	0	0	0	0	0	71.86666667	215.6	215.6	0	;
	71	1022.23665345	-113.684650942	520	-520	0.994771522148	100	1	1040	416	0	0	0	0	0	0	0	114.4	343.2	520	0	;
	73	0	0	0	0	0.995114673568	100	0	0	0	0	0	0	0	0	0	0	0	0	0	0	;
	73	0	0	0	0	0.995114673568	100	0	0	0	0	0	0	0	0	0	0	0	0	0	0	;
	73	565.755481357	10.9273608164	297.5	-297.5	0.995114673568	100	1	595	238	0	0	0	0	0	0	0	65.45	196.35	297.5	0	;
	73	565.755481357	10.9273608164	297.5	-297.5	0.995114673568	100	1	595	238	0	0	0	0	0	0	0	65.45	196.35	297.5	0	;
	79	0	0	424	-424	0.992071333024	100	0	848	440.96	0	0	0	0	0	0	0	141.3333333	424	424	0	;
	75	796.816808576	-41.3341783508	511	-511	0.995752976217	100	1	1022	408.8	0	0	0	0	0	0	0	112.42	337.26	511	0	;
	75	804.020311683	-41.3341783508	511	-511	0.995752976217	100	1	1022	408.8	0	0	0	0	0	0	0	112.42	337.26	511	0	;
	82	904.46671587	-41.6197354235	475	-475	0.994389346377	100	1	950	902.5	0	0	0	0	0	0	0	28.5	85.5	475	0	;
	82	904.46671587	-41.6197354235	475	-475	0.994389346377	100	1	950	902.5	0	0	0	0	0	0	0	28.5	85.5	475	0	;
	82	951.882878265	-48.4646041731	500	-500	0.994389346377	100	1	1000	950	0	0	0	0	0	0	0	30	90	500	0	;
	82	951.882878265	-48.4646041731	500	-500	0.994389346377	100	1	1000	950	0	0	0	0	0	0	0	30	90	500	0	;
	82	951.882878265	-48.4646041731	500	-500	0.994389346377	100	1	1000	950	0	0	0	0	0	0	0	30	90	500	0	;
	82	951.882878265	-48.4646041731	500	-500	0.994389346377	100	1	1000	950	0	0	0	0	0	0	0	30	90	500	0	;
	82	1332.14132924	-87.3575352665	700	-700	0.994389346377	100	1	1400	1330	0	0	0	0	0	0	0	42	126	700	0	;
	87	0	0	180.8	-180.8	0.998298076793	100	0	361.6	188.032	0	0	0	0	0	0	0	60.26666667	180.8	180.8	0	;
	98	0	0	44	-44	1.01138431663	100	0	88	45.76	0	0	0	0	0	0	0	14.66666667	44	44	0	;
	99	0	0	24.15	-24.15	1.01063729229	100	0	48.3	25.116	0	0	0	0	0	0	0	8.05	24.15	24.15	0	;
	100	438.494781021	34.3173508462	225	-225	1.02082871434	100	1	450	234	0	0	0	0	0	0	0	75	225	225	0	;
	100	0	0	225	-225	1.02082871434	100	0	450	234	0	0	0	0	0	0	0	75	225	225	0	;
	100	0	0	225	-225	1.02082871434	100	0	450	234	0	0	0	0	0	0	0	75	225	225	0	;
	100	526.314679265	10.0322720066	275	-275	1.02082871434	100	1	550	220	0	0	0	0	0	0	0	60.5	181.5	275	0	;
	100	473.038412033	23.147130102	250	-250	1.02082871434	100	1	500	200	0	0	0	0	0	0	0	55	165	250	0	;
	100	0	0	0	0	1.02082871434	100	0	0	0	0	0	0	0	0	0	0	0	0	0	0	;
	100	0	0	0	0	1.02082871434	100	0	0	0	0	0	0	0	0	0	0	0	0	0	0	;
	100	473.038412033	23.147130102	250	-250	1.02082871434	100	1	500	200	0	0	0	0	0	0	0	55	165	250	0	;
	100	473.038412033	23.147130102	250	-250	1.02082871434	100	1	500	200	0	0	0	0	0	0	0	55	165	250	0	;
	100	1008.42458166	-97.3797960774	509.515	-509.515	1.02082871434	100	1	1019.03	407.612	0	0	0	0	0	0	0	112.0933	336.2799	509.515	0	;
	100	1008.42458166	-97.3797960774	509.515	-509.515	1.02082871434	100	1	1019.03	407.612	0	0	0	0	0	0	0	112.0933	336.2799	509.515	0	;
	106	999.951968241	-65.2981518141	509	-509	1.01681812889	100	1	1018	407.2	0	0	0	0	0	0	0	111.98	335.94	509	0	;
	108	0	0	359.2	-359.2	1.01676915844	100	0	718.4	373.568	0	0	0	0	0	0	0	119.7333333	359.2	359.2	0	;
	124	946.645872466	-93.8272743484	475	-475	1.01092786931	100	1	950	902.5	0	0	0	0	0	0	0	28.5	85.5	475	0	;
	124	946.645872466	-93.8272743484	475	-475	1.01092786931	100	1	950	902.5	0	0	0	0	0	0	0	28.5	85.5	475	0	;
	124	996.575703058	-103.029328166	500	-500	1.01092786931	100	1	1000	950	0	0	0	0	0	0	0	30	90	500	0	;
	124	996.575703058	-103.029328166	500	-500	1.01092786931	100	1	1000	950	0	0	0	0	0	0	0	30	90	500	0	;
	124	996.575703058	-103.029328166	500	-500	1.01092786931	100	1	1000	950	0	0	0	0	0	0	0	30	90	500	0	;
	124	996.575703058	-103.029328166	500	-500	1.01092786931	100	1	1000	950	0	0	0	0	0	0	0	30	90	500	0	;
	128	0	0	57.623	-57.623	1.00891027681	100	0	115.246	59.92792	0	0	0	0	0	0	0	19.20766667	57.623	57.623	0	;
	134	0	0	262.75	-262.75	1.01373029269	100	0	525.5	273.26	0	0	0	0	0	0	0	87.58333333	262.75	262.75	0	;
	134	0	0	432.1	-432.1	1.01373029269	100	0	864.2	449.384	0	0	0	0	0	0	0	144.0333333	432.1	432.1	0	;
	134	0	0	247.3	-247.3	1.01373029269	100	0	494.6	257.192	0	0	0	0	0	0	0	82.43333333	247.3	247.3	0	;
	134	0	0	247.3	-247.3	1.01373029269	100	0	494.6	257.192	0	0	0	0	0	0	0	82.43333333	247.3	247.3	0	;
	137	320.378014884	35.8138355714	170	-170	1.01115577914	100	1	340	136	0	0	0	0	0	0	0	37.4	112.2	170	0	;
	137	312.776511244	35.7805030734	164.3	-164.3	1.01115577914	100	1	328.6	131.44	0	0	0	0	0	0	0	36.146	108.438	164.3	0	;
	156	0	0	185.35	-185.35	0.995510764411	100	0	370.7	192.764	0	0	0	0	0	0	0	61.78333333	185.35	185.35	0	;
	160	0	0	0	0	1.00066517579	100	0	0	0	0	0	0	0	0	0	0	0	0	0	0	;
	166	697.140293921	69.3656699379	350	-350	1.00505046681	100	1	700	665	0	0	0	0	0	0	0	21	63	350	0	;
	166	697.140293921	69.3656699379	350	-350	1.00505046681	100	1	700	665	0	0	0	0	0	0	0	21	63	350	0	;
	166	697.140293921	69.3656699379	350	-350	1.00505046681	100	1	700	665	0	0	0	0	0	0	0	21	63	350	0	;
	166	996.80325043	85.7409382463	500	-500	1.00505046681	100	1	1000	950	0	0	0	0	0	0	0	30	90	500	0	;
	166	996.80325043	85.7409382463	500	-500	1.00505046681	100	1	1000	950	0	0	0	0	0	0	0	30	90	500	0	;
	167	294.194307185	14.9362418041	150	-150	1.00353967783	100	1	300	156	0	0	0	0	0	0	0	50	150	150	0	;
	167	0	0	225	-225	1.00353967783	100	0	450	234	0	0	0	0	0	0	0	75	225	225	0	;
	167	0	0	225	-225	1.00353967783	100	0	450	234	0	0	0	0	0	0	0	75	225	225	0	;
	167	0	0	435.95	-435.95	1.00353967783	100	0	871.9	453.388	0	0	0	0	0	0	0	145.3166667	435.95	435.95	0	;
	167	0	0	221.4	-221.4	1.00353967783	100	0	442.8	230.256	0	0	0	0	0	0	0	73.8	221.4	221.4	0	;
	172	0	0	22.918	-22.918	1.00158796933	100	0	45.836	23.83472	0	0	0	0	0	0	0	7.639333333	22.918	22.918	0	;
	175	646.866299348	37.2879626457	325	-325	1.01023706587	100	1	650	617.5	0	0	0	0	0	0	0	19.5	58.5	325	0	;
	175	946.491404362	43.1477849944	475	-475	1.01023706587	100	1	950	902.5	0	0	0	0	0	0	0	28.5	85.5	475	0	;
	175	946.491404362	43.1477849944	475	-475	1.01023706587	100	1	950	902.5	0	0	0	0	0	0	0	28.5	85.5	475	0	;
	175	996.407235206	43.7077139525	500	-500	1.01023706587	100	1	1000	950	0	0	0	0	0	0	0	30	90	500	0	;
	175	996.407235206	43.7077139525	500	-500	1.01023706587	100	1	1000	950	0	0	0	0	0	0	0	30	90	500	0	;
	175	1395.4772236	47.2794535004	700	-700	1.01023706587	100	1	1400	1330	0	0	0	0	0	0	0	42	126	700	0	;
	175	1395.4772236	47.2794535004	700	-700	1.01023706587	100	1	1400	1330	0	0	0	0	0	0	0	42	126	700	0	;
	180	0	0	13.15	-13.15	1.00091506686	100	0	26.3	13.676	0	0	0	0	0	0	0	4.383333333	13.15	13.15	0	;
	186	0	0	225	-225	1.00428987473	100	0	450	234	0	0	0	0	0	0	0	75	225	225	0	;
	186	434.182968327	28.7436777851	225	-225	1.00428987473	100	1	450	234	0	0	0	0	0	0	0	75	225	225	0	;
	186	434.182968327	28.7436777851	225	-225	1.00428987473	100	1	450	234	0	0	0	0	0	0	0	75	225	225	0	;
	186	416.044600507	28.7436777851	225	-225	1.00428987473	100	1	450	234	0	0	0	0	0	0	0	75	225	225	0	;
	190	0	0	0	0	1	100	0	0	0	0	0	0	0	0	0	0	0	0	0	0	;
	190	0	0	0	0	1	100	0	0	0	0	0	0	0	0	0	0	0	0	0	0	;
	190	0	0	0	0	1	100	0	0	0	0	0	0	0	0	0	0	0	0	0	0	;
	190	0	0	0	0	1	100	0	0	0	0	0	0	0	0	0	0	0	0	0	0	;
	190	972.930830232	-94.068991254	520	-520	1	100	1	1040	416	0	0	0	0	0	0	0	114.4	343.2	520	0	;
	190	972.930830232	-94.068991254	520	-520	1	100	1	1040	416	0	0	0	0	0	0	0	114.4	343.2	520	0	;
	193	0	0	0	0	1.01661151515	100	0	0	0	0	0	0	0	0	0	0	0	0	0	0	;
	193	0	0	0	0	1.01661151515	100	0	0	0	0	0	0	0	0	0	0	0	0	0	0	;
	193	0	0	0	0	1.01661151515	100	0	0	0	0	0	0	0	0	0	0	0	0	0	0	;
	193	0	0	0	0	1.01661151515	100	0	0	0	0	0	0	0	0	0	0	0	0	0	0	;
	193	0	0	0	0	1.01661151515	100	0	0	0	0	0	0	0	0	0	0	0	0	0	0	;
	193	0	0	0	0	1.01661151515	100	0	0	0	0	0	0	0	0	0	0	0	0	0	0	;
	193	472.720159205	9.54084473014	250	-250	1.01661151515	100	1	500	200	0	0	0	0	0	0	0	55	165	250	0	;
	193	472.720159205	9.54084473014	250	-250	1.01661151515	100	1	500	200	0	0	0	0	0	0	0	55	165	250	0	;
	71	1022.23665345	-113.684650942	520	-520	0.994771522148	100	1	1040	416	0	0	0	0	0	0	0	114.4	343.2	520	0	;
	60	0	0	247.5	-247.5	1.01708515201	100	0	495	257.4	0	0	0	0	0	0	0	82.5	247.5	247.5	0	;
	42	1012.17211201	-74.9233007946	512.7	-512.7	1.00529017136	100	1	1025.4	533.208	0	0	0	0	0	0	0	170.9	512.7	512.7	0	;
	11	0	0	0	0	1.0172636129	100	0	0	0	0	0	0	0	0	0	0	0	0	0	0	;
	172	115.718151657	5.94629624735	59.486	-59.486	1.00158796933	100	1	118.972	61.86544	0	0	0	0	0	0	0	19.8286666667	59.486	59.486	0	;
	82	1332.14132924	-87.3575352665	700	-700	0.994389346377	100	1	1400	1330	0	0	0	0	0	0	0	42	126	700	0	;
	75	825.340537385	-44.7301303508	525	-525	0.995752976217	100	1	1050	420	0	0	0	0	0	0	0	115.5	346.5	525	0	;
	64	0	0	298.5855	-298.5855	1.0151114992	100	0	597.171	310.52892	0	0	0	0	0	0	0	99.5285	298.5855	298.5855	0	;
	160	0	0	135	-135	1.00066517579	100	0	270	140.4	0	0	0	0	0	0	0	45	135	135	0	;
	192	979.597217626	-63.3086442515	506	-506	1.00030694082	100	1	1012	526.24	0	0	0	0	0	0	0	168.666666667	506	506	0	;
	167	1093.79215824	79.6299550909	552.3	-552.3	1.00353967783	100	1	1104.6	574.392	0	0	0	0	0	0	0	184.1	552.3	552.3	0	;
	75	0	0	525	-525	0.995752976217	100	0	1050	546	0	0	0	0	0	0	0	175	525	525	0	;
	62	0	0	135	-135	1.01660821353	100	0	270	140.4	0	0	0	0	0	0	0	45	135	135	0	;
	52	549.008980399	11.1982611132	280.5	-280.5	1.00979930491	100	1	561	291.72	0	0	0	0	0	0	0	93.5	280.5	280.5	0	;
	11	0	0	247.73	-247.73	1.0172636129	100	0	495.46	257.6392	0	0	0	0	0	0	0	82.5766666667	247.73	247.73	0	;
	24	0	0	142.5	-142.5	1.01894232608	100	0	285	148.2	0	0	0	0	0	0	0	47.5	142.5	142.5	0	;
	26	0	0	249	-249	1.01908993941	100	0	498	258.96	0	0	0	0	0	0	0	83	249	249	0	;
...
];

% branch data
%	fbus	tbus	r	x	b	rateA	rateB	rateC	ratio	angle	status	angmin	angmax	Pf	Qf	Pt	Qt
mpc.branch = [
	1	2	0.001953667	0.017794207	0.057753945	904	904	904	0	0	1	-30	30	154.438272782	-40.9133055641	-153.956785746	39.3480882347	;
	1	3	0.002346024	0.021367842	0.069352749	904	904	904	0	0	1	-30	30	124.02890683	-35.4814783179	-123.653936145	31.7499800809	;
	1	66	0.002789894	0.025410654	0.082474341	904	904	904	0	0	1	-30	30	-352.387357766	69.0027708108	355.909068849	-45.3519088168	;
	2	3	0.000230027	0.002463512	0.207508013	2172	2172	2172	0	0	1	-30	30	-39.9846046961	-13.0782428479	39.9881719606	-8.35288007295	;
	2	4	0.001097043	0.009991982	0.032430577	904	904	904	0	0	1	-30	30	57.6666669091	-22.9022414722	-57.6266237911	19.9072064254	;
	2	6	0.004587512	0.041783555	0.135615211	904	904	904	0	0	1	-30	30	46.9326612829	-12.3018195809	-46.8337412468	-0.829621982205	;
	3	4	0.000157872	0.001690763	0.142417379	2172	2172	2172	0	0	1	-30	30	401.782930478	-123.66479119	-401.516009174	111.767105687	;
	3	7	0.001539844	0.014025061	0.04552058	904	904	904	0	0	1	-30	30	74.862160816	-31.9984933756	-74.765686711	28.1528648096	;
	3	28	0.000668777	0.007162388	0.603306441	2172	2172	2172	0	0	1	-30	30	-802.736864204	91.2904072559	806.998532418	-107.972042224	;
	4	7	0.001330617	0.012119404	0.039335464	904	904	904	0	0	1	-30	30	30.8681865446	-19.4708963606	-30.8520693893	15.5299513512	;
	4	8	0.000413018	0.004423289	0.372585094	2172	2172	2172	0	0	1	-30	30	174.299076146	-24.9403266523	-174.178009199	-12.4018989715	;
	5	16	0.00309813	0.028218105	0.091586372	904	904	904	0	0	1	-30	30	494.829738402	-43.6649899799	-487.429266022	101.574562622	;
	5	20	0.003233724	0.029453105	0.095594761	904	904	904	0	0	1	-30	30	441.0026359	-37.5536556491	-434.871762823	83.4994363853	;
	5	66	0.002753227	0.025076687	0.081390398	904	904	904	0	0	1	-30	30	50.5156928738	19.5643557147	-50.4325031641	-27.1423427787	;
	5	70	0.001710666	0.015580931	0.050570403	904	904	904	0	0	1	-30	30	-20.4561354321	34.9252357878	20.4864405944	-39.8374233214	;
	6	8	0.001796592	0.016363559	0.053110546	904	904	904	0	0	1	-30	30	-37.7068455587	-3.4888402496	37.7315360503	-1.78739604837	;
	6	11	0.001545809	0.014079394	0.045696926	904	904	904	0	0	1	-30	30	-2.25675120727	-1.60421132482	2.25683591321	-3.12418014031	;
	7	9	0.000740338	0.006743076	0.021885732	904	904	904	0	0	1	-30	30	3.25756301374	8.51044306679	-3.25682528284	-10.7803569435	;
	7	14	0.000255269	0.002733843	0.230278712	2172	2172	2172	0	0	1	-30	30	25.7336266344	4.36381769536	-25.7313471574	-28.2975683949	;
	7	28	0.000583767	0.00625196	0.526618746	2172	2172	2172	0	0	1	-30	30	-1089.90986217	188.924695692	1096.83436608	-169.327717616	;
	8	10	0.000160584	0.000184873	0.901984702	1416	1416	1416	0	0	1	-30	30	-943.002281081	-51.4275489829	944.379888808	-40.6241683005	;
	8	11	0.000158062	0.001692798	0.142588761	2172	2172	2172	0	0	1	-30	30	346.185311115	13.8139338483	-346.001886261	-26.6176335132	;
	8	14	0.000269282	0.002883925	0.242920462	2172	2172	2172	0	0	1	-30	30	-112.23053935	-58.8102178479	112.268809006	33.9989758322	;
	9	12	0.000119405	0.000137466	0.167672111	708	708	708	0	0	1	-30	30	135.923503247	-64.8210724758	-135.898666805	47.4205426575	;
	9	13	0.000176983	0.000203752	0.248523638	708	708	708	0	0	1	-30	30	-84.4986992174	-33.5733799905	84.5115813234	7.7478816886	;
	9	15	0.000297907	0.000342968	0.41832935	708	708	708	0	0	1	-30	30	-396.387309278	83.7445490305	396.869465059	-126.71171428	;
	10	14	0.00105221	0.00958364	0.031105236	904	904	904	0	0	1	-30	30	-14.3389870733	-1.2391085943	14.3410694128	-1.97615631941	;
	10	24	0.000243464	0.000280289	1.367512381	1416	1416	1416	0	0	1	-30	30	168.791635659	34.1989654143	-168.698958058	-176.169866662	;
	11	21	0.00015784	0.00169041	0.142387631	2172	2172	2172	0	0	1	-30	30	-215.802535126	-18.100657704	215.873744332	4.12112509232	;
	11	25	0.00110679	0.010080759	0.032718716	904	904	904	0	0	1	-30	30	-50.5631318151	-7.83882875381	50.5908800642	4.70184701581	;
	12	14	0.000665432	0.00606083	0.019671394	904	904	904	0	0	1	-30	30	3.78434929218	-5.51866061934	-3.78412817261	3.47556011558	;
	12	18	0.000258897	0.000298056	0.363549377	708	708	708	0	0	1	-30	30	-223.405624128	-77.453970167	223.538484671	39.7925283947	;
	13	16	0.000661549	0.006025463	0.019556605	904	904	904	0	0	1	-30	30	-40.1856266642	-13.441452836	40.1968815712	11.5081942924	;
	13	17	0.000189196	0.000217813	0.265674267	708	708	708	0	0	1	-30	30	-347.27682891	-17.5263784258	347.496262345	-9.86734408966	;
	13	22	0.000821755	0.00748463	0.024292563	904	904	904	0	0	1	-30	30	-43.6180788429	-9.31627283546	43.6336249751	6.9292276402	;
	14	18	9.94e-05	0.000114489	0.558582953	1416	1416	1416	0	0	1	-30	30	-603.997008768	53.799671256	604.35228347	-111.504997735	;
	14	19	2.7e-05	6.2e-05	1.344867636	1906	1906	1906	0	0	1	-30	30	-105.408582755	-89.1872954418	105.411563982	-50.6622244513	;
	14	23	0.000322118	0.000370841	0.45232683	708	708	708	0	0	1	-30	30	201.370055489	-12.9073277051	-201.244098233	-33.95340781	;
	15	16	0.000110729	0.000127478	0.155489196	708	708	708	0	0	1	-30	30	-508.769478401	129.346729357	509.064843333	-145.202313052	;
	16	17	1.61e-05	3.7e-05	7.216516162	5718	5718	5718	0	0	1	-30	30	3963.75045335	-1145.92252789	-3961.23124394	400.019314633	;
	16	20	0.000640865	0.005837068	0.018945138	904	904	904	0	0	1	-30	30	-162.978490225	45.3455115133	163.155061671	-45.7082706847	;
	16	22	3.29e-05	7.57e-05	1.640782241	1906	1906	1906	0	0	1	-30	30	-931.022793767	387.079965934	931.366993438	-557.245882061	;
	16	28	0.000193401	0.002071259	0.697869898	4344	4344	4344	0	0	1	-30	30	-3179.15157836	624.926859108	3198.72276242	-487.668817187	;
	17	18	8.5e-06	1.95e-05	1.693948976	3812	3812	3812	0	0	1	-30	30	3049.02082491	-446.623408871	-3048.25145653	272.033577568	;
	18	19	3.3e-05	3.8e-05	0.742	2832	2832	2832	0	0	1	-30	30	1677.64909053	-269.518615879	-1676.73989373	193.365473885	;
	18	30	0.000754369	0.006870878	0.022300533	904	904	904	0	0	1	-30	30	-46.8723477249	10.2384040943	46.8892118414	-12.4051158693	;
	19	23	4.24e-05	4.88e-05	0.952412124	2832	2832	2832	0	0	1	-30	30	1641.37222542	17.1427598199	-1640.27201359	-114.854869523	;
	20	22	0.000644357	0.005868869	0.019048354	904	904	904	0	0	1	-30	30	147.882451667	-43.1547368348	-147.735764556	42.5091458727	;
	21	25	0.000588113	0.0053566	0.017385701	904	904	904	0	0	1	-30	30	-27.1019069336	-10.290209023	27.1065776285	8.53064254076	;
	21	34	9.49e-05	0.001016882	0.085654572	2172	2172	2172	0	0	1	-30	30	-563.241312222	-114.136691996	563.542969932	108.481963416	;
	22	29	0.000157753	0.000181614	0.886083495	1416	1416	1416	0	0	1	-30	30	143.622878889	302.072506496	-143.408035508	-394.068186356	;
	22	36	0.000114952	0.001231098	0.103698609	2172	2172	2172	0	0	1	-30	30	-105.06388815	66.5574619539	105.081780165	-77.1620536133	;
	22	38	0.000222736	0.002385427	0.200930653	2172	2172	2172	0	0	1	-30	30	-508.212798292	200.230807364	508.859864188	-214.158907363	;
	22	46	0.000425686	0.004558955	0.384012537	2172	2172	2172	0	0	1	-30	30	-354.069230226	91.1446803966	354.631917338	-124.996526353	;
	23	24	5.52e-05	0.000503	0.0147	2712	2712	2712	0	0	1	-30	30	175.950318819	6.61365512935	-175.933834509	-7.98985949157	;
	23	32	2.02e-05	4.64e-05	1.00675716	1906	1906	1906	0	0	1	-30	30	940.859122614	127.920218309	-940.680624082	-232.03551654	;
	23	33	0.000169968	0.000195677	0.238673524	708	708	708	0	0	1	-30	30	319.660705695	-18.8017027228	-319.493400658	-5.77953742873	;
	24	26	0.000118	0.000136	0.664	1416	1416	1416	0	0	1	-30	30	-297.2313552	112.945384873	297.356462333	-181.750547514	;
	25	26	0.00041452	0.003775492	0.012253963	904	904	904	0	0	1	-30	30	-77.7363418205	-9.6662637704	77.7608183155	8.61738781491	;
	25	34	0.000619848	0.00564564	0.018323828	904	904	904	0	0	1	-30	30	-75.9120228977	-10.2223771879	75.9469748302	8.63832027195	;
	26	32	0.000607908	0.005536893	0.01797087	904	904	904	0	0	1	-30	30	2.30701259661	4.05417280597	-2.30683584565	-5.91839603007	;
	26	34	4.5e-05	0.000103577	2.245327702	1906	1906	1906	0	0	1	-30	30	-1198.84751569	81.0686791903	1199.4871972	-312.858912426	;
	27	34	9.33e-05	0.000999417	0.336734	4344	4344	4344	0	0	1	-30	30	217.137163634	1.2902419805	-217.094548532	-35.8407492275	;
	28	38	0.001685665	0.015353221	0.049831335	904	904	904	0	0	1	-30	30	344.362658421	-41.0829084893	-342.400054718	53.8121381463	;
	28	41	0.002015591	0.018358223	0.059584548	904	904	904	0	0	1	-30	30	-88.309141382	58.728602257	88.5362112047	-62.7493058472	;
	28	50	9.99e-05	0.00321	1.63	7290	7290	7290	0	0	1	-30	30	1208.1777181	-144.343942109	-1206.76016874	21.5589867976	;
	28	80	0.000122152	0.003924627	7.991861101	14580	14580	14580	0	0	1	-30	30	-6508.26730965	1204.75579766	6561.53584872	-299.966646471	;
	29	30	8.04e-06	9.26e-06	0.04515506	1416	1416	1416	0	0	1	-30	30	632.021487476	50.212711822	-631.990398063	-54.8735061544	;
	29	36	3.7e-05	8.52e-05	1.846241882	1906	1906	1906	0	0	1	-30	30	-1113.47885593	277.073410395	1113.96939771	-468.000178289	;
	30	31	0.00033011	0.003006676	0.009758648	904	904	904	0	0	1	-30	30	199.737682515	31.044119336	-199.607896285	-30.8754090084	;
	31	33	0.000235829	0.000271499	0.331156608	708	708	708	0	0	1	-30	30	-153.572524398	9.32548777037	153.627762278	-43.608129413	;
	31	36	0.00107165	0.0097607	0.031679912	904	904	904	0	0	1	-30	30	-73.1869549808	-11.178090065	73.2432547958	8.40056773696	;
	32	33	6.05e-05	6.97e-05	0.1912274	1062	1062	1062	0	0	1	-30	30	375.825980602	32.5186350965	-375.742602785	-52.2663825268	;
	32	37	0.000239942	0.002569698	0.216452349	2172	2172	2172	0	0	1	-30	30	-14.887495968	30.4336827697	14.8920217144	-52.8298001879	;
	32	44	0.000338016	0.003620039	0.304925228	2172	2172	2172	0	0	1	-30	30	-129.391280746	71.0659662766	129.470388855	-101.786781484	;
	34	37	6.47e-05	0.000692975	0.058371101	2172	2172	2172	0	0	1	-30	30	157.173330442	222.114467257	-157.126390749	-227.668041056	;
	35	37	0.000950447	0.008656772	0.028096937	904	904	904	0	0	1	-30	30	-48.3969796772	-18.1087286106	48.4211055745	15.4232926738	;
	35	40	0.001104834	0.01006295	0.032660912	904	904	904	0	0	1	-30	30	-169.467619638	21.1399656032	169.780637059	-21.6588966617	;
	36	38	0.000952048	0.00867136	0.028144286	904	904	904	0	0	1	-30	30	-123.866984743	48.0220946109	124.029802464	-49.4585491203	;
	36	43	0.001604892	0.014617531	0.047443535	904	904	904	0	0	1	-30	30	71.281543672	32.2081645256	-71.184611712	-36.2319212687	;
	36	44	0.000327256	0.003504805	0.295218756	2172	2172	2172	0	0	1	-30	30	47.8558054995	91.2764666291	-47.8128337086	-121.414628712	;
	36	46	0.000315296	0.00337672	0.284429868	2172	2172	2172	0	0	1	-30	30	-439.56967143	108.361853327	440.201230634	-131.113135137	;
	37	40	0.000119	0.00127	0.429	4344	4344	4344	0	0	1	-30	30	-1022.07667862	253.007218179	1023.36374397	-283.61722037	;
	38	42	0.001675214	0.015258027	0.049522368	904	904	904	0	0	1	-30	30	-96.5616759788	86.8282403936	96.8421250393	-89.3372085109	;
	38	45	0.001624604	0.014797065	0.048026242	904	904	904	0	0	1	-30	30	-10.6833429553	1.20524937229	10.6853495066	-6.15233845607	;
	38	46	0.001525585	0.013895192	0.045099066	904	904	904	0	0	1	-30	30	-28.7673494788	-1.9187328754	28.7795589672	-2.63621836783	;
	38	84	0.000977268	0.010466224	0.881597169	2172	2172	2172	0	0	1	-30	30	-637.269501174	129.337997075	641.395989677	-175.46506807	;
	39	44	0.000549539	0.00500526	0.064981493	1808	1808	1808	0	0	1	-30	30	-364.207494034	-21.7215355964	364.91949772	21.5167438913	;
	40	44	0.000186834	0.002000932	0.16854368	2172	2172	2172	0	0	1	-30	30	433.943724927	-73.95710507	-433.594936454	60.2980358925	;
	40	47	0.000177428	0.001900194	0.160058219	2172	2172	2172	0	0	1	-30	30	1090.86507388	70.8902735045	-1088.80743294	-65.3121775281	;
	41	42	0.001299581	0.011836722	0.038417974	904	904	904	0	0	1	-30	30	449.968618634	-31.2627329427	-447.358827115	51.1467754666	;
	41	52	0.003101751	0.028251087	0.091693421	904	904	904	0	0	1	-30	30	13.4650882762	-18.7722614655	-13.4534175576	9.56154386467	;
	41	77	0.002217352	0.020195883	0.065548969	904	904	904	0	0	1	-30	30	-125.925529337	16.6158130845	126.281496191	-20.0046493274	;
	42	46	0.00172419	0.015704108	0.050970195	904	904	904	0	0	1	-30	30	68.9276913432	-86.9816539424	-68.7250858819	83.6136638473	;
	42	84	0.004178797	0.038060939	0.123532864	904	904	904	0	0	1	-30	30	-134.099178962	6.48301881807	134.849442583	-12.1595219589	;
	43	44	0.000449352	0.004092749	0.013283673	904	904	904	0	0	1	-30	30	-211.246450842	-31.8326074441	211.445743347	32.2791467437	;
	44	48	0.001280818	0.011665829	0.037863315	904	904	904	0	0	1	-30	30	-190.314734627	2.82853951932	190.764290148	-2.65165643911	;
	44	57	0.000681396	0.007297531	0.614689901	2172	2172	2172	0	0	1	-30	30	-522.875502046	57.1897630739	524.731836542	-100.64568132	;
	45	46	0.000111099	0.001189836	0.100222927	2172	2172	2172	0	0	1	-30	30	-202.588743192	-49.8992697469	202.635011838	40.0289855048	;
	45	50	0.00040114	0.004296079	0.361869864	2172	2172	2172	0	0	1	-30	30	-302.031193913	3.6462562562	302.387196914	-37.245461895	;
	46	48	0.001260894	0.011484355	0.037274311	904	904	904	0	0	1	-30	30	-50.3649782539	-4.03294818784	50.3959337645	0.453543091983	;
	46	50	0.000334595	0.003583402	0.301839233	2172	2172	2172	0	0	1	-30	30	-295.143363269	25.3756742268	295.430394993	-53.5302242311	;
	47	49	0.001906713	0.017366547	0.056365905	904	904	904	0	0	1	-30	30	-145.12143958	6.46015929193	145.514807851	-8.66336304102	;
	47	60	0.000752607	0.008060181	0.67892992	2172	2172	2172	0	0	1	-30	30	-1047.05908784	48.3778132997	1055.15926741	-31.5409205648	;
	48	49	0.001480551	0.013485018	0.043767781	904	904	904	0	0	1	-30	30	66.2449290794	23.5977835397	-66.1727097266	-27.4585755994	;
	48	51	0.001270961	0.011576049	0.037571917	904	904	904	0	0	1	-30	30	34.531834617	25.2923989132	-34.508121356	-28.9585032359	;
	49	51	0.000899122	0.008189302	0.0598043	1356	1356	1356	0	0	1	-30	30	-60.0442560169	-6.64749371899	60.0759017684	0.782954539159	;
	49	53	0.002230934	0.020319589	0.065950477	904	904	904	0	0	1	-30	30	-406.410884614	32.7841631435	410.023840947	-6.69013168318	;
	50	51	0.000183433	0.001964511	0.165475847	2172	2172	2172	0	0	1	-30	30	444.656819828	66.9419604481	-444.296014425	-80.1536738123	;
	50	54	0.000298513	0.003196975	0.269289514	2172	2172	2172	0	0	1	-30	30	-367.263839728	80.6781594715	367.679006503	-104.031340327	;
	50	62	4.12e-05	0.001322961	2.693994224	14580	14580	14580	0	0	1	-30	30	-1088.5617343	-71.6732606625	1089.03562588	-191.625039453	;
	51	55	0.001436718	0.01308578	0.042471992	904	904	904	0	0	1	-30	30	-203.792903541	22.3445343985	204.380802241	-21.3633785019	;
	51	57	0.00189377	0.017248658	0.055983277	904	904	904	0	0	1	-30	30	-115.192817713	15.1874871852	115.442875508	-18.6701972922	;
	52	54	0.001933006	0.017606027	0.057143176	904	904	904	0	0	1	-30	30	220.803236318	-53.2771830661	-219.830935501	56.2753565715	;
	52	56	0.001462649	0.013321963	0.04323856	904	904	904	0	0	1	-30	30	233.305981174	-26.6975573341	-232.516608573	29.4767850605	;
	52	84	0.001585688	0.014442614	0.046875812	904	904	904	0	0	1	-30	30	-12.5360611314	16.1009920708	12.5438219432	-20.7986446703	;
	53	55	0.000288514	0.003089893	1.041078801	4344	4344	4344	0	0	1	-30	30	1668.316349	-32.6507417446	-1660.58019162	7.85600780695	;
	53	58	0.000270064	0.002892303	0.243626177	2172	2172	2172	0	0	1	-30	30	-202.847061026	34.8796790876	202.959973822	-58.9433204955	;
	53	63	2.79e-05	0.000896312	1.825192122	14580	14580	14580	0	0	1	-30	30	1470.27107991	-125.929602294	-1469.68988127	-44.8768637379	;
	54	55	0.002132132	0.019419691	0.063029714	904	904	904	0	0	1	-30	30	-32.6385669586	2.14847441744	32.6612108862	-8.43516583026	;
	54	61	0.001817125	0.016550571	0.053717525	904	904	904	0	0	1	-30	30	-2.38296445055	-2.30303824896	2.38306839282	-3.23126700253	;
	54	62	0.000345552	0.003700749	0.311723639	2172	2172	2172	0	0	1	-30	30	-67.6231666274	-50.4699988371	67.642471366	18.5074483913	;
	55	57	0.000154208	0.001651521	0.139111914	2172	2172	2172	0	0	1	-30	30	412.238761414	4.70043639608	-411.984073556	-16.2873956601	;
	55	64	0.003142511	0.028622331	0.092898352	904	904	904	0	0	1	-30	30	-30.5926393688	-2.41776277554	30.6213699172	-6.89028649052	;
	56	61	0.001408725	0.01283082	0.041644479	904	904	904	0	0	1	-30	30	56.3233946308	-47.0961232613	-56.2516753105	43.47919158	;
	57	60	0.001430752	0.01303144	0.042295623	904	904	904	0	0	1	-30	30	-264.33830303	7.26614407736	265.311868397	-2.76086433979	;
	57	97	0.000552148	0.005913329	0.498094995	2172	2172	2172	0	0	1	-30	30	-1114.63185308	36.565237006	1121.32444676	-16.3331842893	;
	58	59	6.17e-05	0.00066	0.501	6516	6516	6516	0	0	1	-30	30	-2710.04803938	155.055140883	2714.43920924	-160.046294678	;
	58	63	0.00017	0.00182	0.613	4344	4344	4344	0	0	1	-30	30	1041.26362236	-161.161563639	-1039.45797517	116.905071934	;
	60	63	0.000254942	0.002730347	0.229984176	2172	2172	2172	0	0	1	-30	30	-388.71991461	-39.8165083068	389.094227882	19.9926956052	;
	60	100	0.000568608	0.006089613	0.512943851	2172	2172	2172	0	0	1	-30	30	-1129.41248139	54.3525498421	1136.45982132	-32.1355204823	;
	61	62	0.000190755	0.001737417	0.022556263	1808	1808	1808	0	0	1	-30	30	-122.238354303	-76.4585872614	122.276512169	74.4784445616	;
	62	63	6.31e-05	0.00202596	4.125535352	14580	14580	14580	0	0	1	-30	30	-2099.16656062	-217.779819487	2101.85696778	-123.156012382	;
	62	64	0.00024797	0.002655684	0.223695124	2172	2172	2172	0	0	1	-30	30	-476.991267411	93.3229005124	477.563560442	-110.278520697	;
	63	97	0.001705746	0.015536123	0.050424972	904	904	904	0	0	1	-30	30	-134.802167127	15.70491168	135.106274887	-18.1679155856	;
	64	96	0.001229987	0.011202852	0.036360649	904	904	904	0	0	1	-30	30	-374.276427183	13.3770415779	375.951286857	-1.88270117904	;
	64	98	0.00145865	0.013285543	0.043120356	904	904	904	0	0	1	-30	30	29.5553816472	23.0581463722	-29.5339702622	-27.2901874156	;
	64	99	0.00122871	0.011191219	0.036322892	904	904	904	0	0	1	-30	30	54.7027370065	32.8476437465	-54.6526823899	-36.1181775589	;
	64	102	0.00020466	0.002191839	0.73849704	4344	4344	4344	0	0	1	-30	30	-1065.01585155	63.0642645462	1067.2889315	-114.83605132	;
	65	68	0.001222283	0.011132689	0.036132921	904	904	904	0	0	1	-30	30	-262.898260196	21.1277541192	263.760024739	-16.8517101596	;
	65	69	0.003164497	0.028822584	0.093548306	904	904	904	0	0	1	-30	30	198.330148539	-34.4991026497	-197.041353015	36.9595395173	;
	66	67	0.001903714	0.01733923	0.056277244	904	904	904	0	0	1	-30	30	-248.276741023	71.2042568752	249.533401077	-65.4413173272	;
	66	70	0.001986687	0.018094956	0.058730073	904	904	904	0	0	1	-30	30	-87.0034221977	-2.57262293151	87.1513093222	-2.0631485256	;
	67	69	0.001285688	0.011710181	0.038007266	904	904	904	0	0	1	-30	30	-276.111725644	62.3809661666	277.142272196	-56.792563801	;
	68	69	0.00309092	0.02815243	0.091373212	904	904	904	0	0	1	-30	30	308.404719222	-35.0160695459	-305.405973456	53.2565428607	;
	68	71	0.000542799	0.0058132	0.489660838	2172	2172	2172	0	0	1	-30	30	-608.765997349	47.0359929974	610.825854577	-73.4403861904	;
	69	72	0.003845431	0.035024597	0.113677932	904	904	904	0	0	1	-30	30	175.027907497	-38.4512262249	-173.803427586	38.2068942022	;
	70	72	0.001924592	0.017529395	0.056894456	904	904	904	0	0	1	-30	30	7.32228716222	28.2120479581	-7.30301679901	-33.8106480955	;
	71	73	0.000429713	0.004602092	0.387646086	2172	2172	2172	0	0	1	-30	30	-908.025617646	77.7464163847	911.646784441	-77.3383945324	;
	71	78	0.005029715	0.045811184	0.148687523	904	904	904	0	0	1	-30	30	350.382825096	-47.8624910042	-344.059465178	90.5302681933	;
	72	74	0.001850173	0.016851572	0.054694473	904	904	904	0	0	1	-30	30	71.921507985	-15.3147465823	-71.8237967875	10.6796751733	;
	73	75	0.000154736	0.001657168	0.139587554	2172	2172	2172	0	0	1	-30	30	-2159.49461683	196.095674408	2166.84602392	-131.196268135	;
	73	76	0.003400257	0.030969904	0.100517777	904	904	904	0	0	1	-30	30	353.720874905	-3.29875872538	-349.424554729	32.5407750822	;
	73	79	0.005323371	0.048485836	0.157368535	904	904	904	0	0	1	-30	30	333.697789718	-10.6008411198	-327.711221867	49.5912614232	;
	73	80	0.003287737	0.029945065	0.097191498	904	904	904	0	0	1	-30	30	152.128777641	-13.3424111975	-151.357986203	10.7518894117	;
	73	81	0.001180594	0.012643784	1.065018618	2172	2172	2172	0	0	1	-30	30	1583.48830308	-61.6176441939	-1553.59336172	276.015996874	;
	74	77	0.001050785	0.009570661	0.03106311	904	904	904	0	0	1	-30	30	205.339572972	-20.4415542695	-204.897646208	21.3266008455	;
	74	78	0.003080612	0.028058549	0.091068507	904	904	904	0	0	1	-30	30	-132.118812886	-0.321716698884	132.651240649	-4.06851474863	;
	75	82	0.000690812	0.007398375	0.623184303	2172	2172	2172	0	0	1	-30	30	50.0636247329	-17.1276359215	-50.0448418603	-44.376863754	;
	76	79	0.00216439	0.019713499	0.063983315	904	904	904	0	0	1	-30	30	260.628812286	-41.8565470316	-259.09142534	49.5836562915	;
	77	81	0.002745828	0.0250093	0.081171682	904	904	904	0	0	1	-30	30	-227.873063412	57.4132294605	229.386560397	-51.7723163965	;
	78	81	0.002422622	0.022065501	0.071617111	904	904	904	0	0	1	-30	30	-4.45180361403	47.4213296916	4.51432804638	-54.0639928146	;
	79	80	0.003522928	0.032087205	0.104144155	904	904	904	0	0	1	-30	30	-356.873564059	50.4655064767	361.542940171	-18.2033389266	;
	79	81	0.001905365	0.017354266	0.056326045	904	904	904	0	0	1	-30	30	212.742350986	-55.6643673305	-211.811996618	58.5614309312	;
	79	83	0.001772751	0.016146406	0.052405742	904	904	904	0	0	1	-30	30	325.72069993	0.403877063381	-323.809575012	11.8703821788	;
	80	82	3.61e-05	0.00115912	2.360357594	14580	14580	14580	0	0	1	-30	30	-6728.61161252	302.921957756	6745.22704043	-2.6623712742	;
	81	84	0.00122041	0.011115623	0.144310127	1808	1808	1808	0	0	1	-30	30	763.915836213	-141.717317468	-756.543147812	194.360276322	;
	81	86	0.000662535	0.007095536	0.59767536	2172	2172	2172	0	0	1	-30	30	-228.549708955	16.4004785972	228.911369252	-71.9554088213	;
	82	85	0.004627741	0.042149964	0.136804449	904	904	904	0	0	1	-30	30	466.178297552	2.09769541164	-456.003702915	77.1220731643	;
	82	86	0.000927929	0.009937818	0.837088105	2172	2172	2172	0	0	1	-30	30	2170.2056806	-24.843834512	-2126.00501122	415.283723018	;
	82	94	0.005001876	0.045557628	0.147864567	904	904	904	0	0	1	-30	30	412.995948692	-17.6813299975	-404.36247944	81.6624458664	;
	83	89	0.003668123	0.033409661	0.108436396	904	904	904	0	0	1	-30	30	43.126812475	-39.9394398601	-43.0116000256	30.3109439836	;
	85	86	0.000987046	0.00899012	0.029178874	904	904	904	0	0	1	-30	30	191.641962039	-103.558253136	-191.165890751	105.01962282	;
	86	87	0.000301405	0.003227955	0.271898989	2172	2172	2172	0	0	1	-30	30	532.362788916	-118.775053469	-531.468642041	101.306676801	;
	86	89	0.003643968	0.033189659	0.107722346	904	904	904	0	0	1	-30	30	141.669957374	-20.7589144367	-140.92450153	16.8432387853	;
	86	90	0.002477336	0.022563841	0.073234554	904	904	904	0	0	1	-30	30	134.045158428	-26.0707425507	-133.584192907	22.9830088267	;
	86	92	0.000752885	0.008063158	0.67918067	2172	2172	2172	0	0	1	-30	30	234.553837565	-111.526021233	-234.090664385	48.7443134559	;
	87	90	0.002118269	0.019293421	0.062619884	904	904	904	0	0	1	-30	30	68.1386429143	-11.5458198425	-68.0384498584	6.21599838341	;
	87	95	0.000515412	0.005519901	0.464955523	2172	2172	2172	0	0	1	-30	30	290.36789625	-81.88239305	-289.914022896	40.3184147705	;
	88	92	0.001978682	0.018022046	0.058493431	904	904	904	0	0	1	-30	30	95.332353859	-22.0937899056	-95.1450033599	17.9485430041	;
	88	94	0.002833759	0.025810183	0.083771075	904	904	904	0	0	1	-30	30	-111.985367452	20.4284893065	112.358401993	-25.3739090814	;
	89	93	0.001483845	0.013515018	0.043865152	904	904	904	0	0	1	-30	30	258.325238134	-69.0365298052	-257.263288065	74.3190803139	;
	90	92	0.002453205	0.022344057	0.072521209	904	904	904	0	0	1	-30	30	-51.6274481698	-8.78221420336	51.6936798798	2.13601647115	;
	91	147	0.00275034	0.025050396	0.081305066	904	904	904	0	0	1	-30	30	-46.8141734045	1.48632733509	46.8738639674	-9.2720073607	;
	92	95	0.000460572	0.004932573	0.415483409	2172	2172	2172	0	0	1	-30	30	291.665215216	-28.0827172182	-291.273999366	-9.32731717776	;
	93	102	0.004195747	0.038215319	0.124033929	904	904	904	0	0	1	-30	30	55.3835724911	-43.2682532526	-55.1985789877	32.3170527007	;
	93	149	0.002966654	0.027020609	0.087699707	904	904	904	0	0	1	-30	30	50.7780181999	18.0005310055	-50.6872214747	-25.936179392	;
	94	150	0.00258422	0.023537359	0.076394262	904	904	904	0	0	1	-30	30	233.29826297	-31.4549102009	-231.862183942	36.9318125895	;
	95	146	0.001216475	0.011079788	0.035961223	904	904	904	0	0	1	-30	30	236.505188093	-3.26619451707	-235.824973991	5.87276046683	;
	95	150	0.000858914	0.009198692	0.774829649	2172	2172	2172	0	0	1	-30	30	-60.4452644668	-16.1838800542	60.4810091222	-60.82476737	;
	95	152	0.003724941	0.033927169	0.110116054	904	904	904	0	0	1	-30	30	110.334217695	-11.7854531017	-109.879451818	4.925931428	;
...